147

Pt     63.246671013231818     54.715767487259157     54.159146640720891
Pt     62.346039564686166     52.357883743629579     58.530903525972661
Pt     63.246671013231818     54.715767487259157     57.073651230888736
Pt     63.246671013231818     54.715767487259157     59.988155821056580
Pt     51.801262897091313     52.357883743629579     55.616398935804810
Pt     50.900631448545653     54.715767487259157     54.159146640720891
Pt     51.801262897091313     52.357883743629579     58.530903525972661
Pt     50.900631448545653     54.715767487259157     57.073651230888736
Pt     50.900631448545653     54.715767487259157     59.988155821056580
Pt     55.616398935804810     62.346039564686166     61.789418718147893
Pt     54.159146640720891     63.246671013231818     59.431534974518314
Pt     58.530903525972661     62.346039564686166     61.789418718147893
Pt     57.073651230888736     63.246671013231818     59.431534974518314
Pt     59.988155821056580     63.246671013231818     59.431534974518314
Pt     55.616398935804810     51.801262897091313     61.789418718147893
Pt     54.159146640720891     50.900631448545653     59.431534974518314
Pt     58.530903525972661     51.801262897091313     61.789418718147893
Pt     57.073651230888736     50.900631448545653     59.431534974518314
Pt     59.988155821056580     50.900631448545653     59.431534974518314
Pt     55.616398935804810     62.346039564686166     52.357883743629579
Pt     54.159146640720891     63.246671013231818     54.715767487259157
Pt     58.530903525972661     62.346039564686166     52.357883743629579
Pt     57.073651230888736     63.246671013231818     54.715767487259157
Pt     59.988155821056580     63.246671013231818     54.715767487259157
Pt     55.616398935804810     51.801262897091313     52.357883743629579
Pt     54.159146640720891     50.900631448545653     54.715767487259157
Pt     58.530903525972661     51.801262897091313     52.357883743629579
Pt     57.073651230888736     50.900631448545653     54.715767487259157
Pt     59.988155821056580     50.900631448545653     54.715767487259157
Pt     60.888787269602240     53.258515192175231     60.888787269602240
Pt     60.888787269602240     60.888787269602240     60.888787269602240
Pt     60.888787269602240     53.258515192175231     53.258515192175231
Pt     60.888787269602240     60.888787269602240     53.258515192175231
Pt     53.258515192175231     53.258515192175231     60.888787269602240
Pt     53.258515192175231     60.888787269602240     60.888787269602240
Pt     53.258515192175231     53.258515192175231     53.258515192175231
Pt     53.258515192175231     60.888787269602240     53.258515192175231
Pt     57.073651230888736     57.073651230888736     57.073651230888736
Pt     59.431534974518314     57.073651230888736     55.616398935804810
Pt     59.431534974518314     57.073651230888736     58.530903525972661
Pt     54.715767487259157     57.073651230888736     55.616398935804810
Pt     54.715767487259157     57.073651230888736     58.530903525972661
Pt     55.616398935804810     59.431534974518314     57.073651230888736
Pt     58.530903525972661     59.431534974518314     57.073651230888736
Pt     55.616398935804810     54.715767487259157     57.073651230888736
Pt     58.530903525972661     54.715767487259157     57.073651230888736
Pt     57.073651230888736     55.616398935804810     59.431534974518314
Pt     57.073651230888736     58.530903525972661     59.431534974518314
Pt     57.073651230888736     55.616398935804810     54.715767487259157
Pt     57.073651230888736     58.530903525972661     54.715767487259157
Pt     61.789418718147893     57.073651230888736     54.159146640720891
Pt     61.789418718147893     57.073651230888736     57.073651230888736
Pt     61.789418718147893     57.073651230888736     59.988155821056580
Pt     52.357883743629579     57.073651230888736     54.159146640720891
Pt     52.357883743629579     57.073651230888736     57.073651230888736
Pt     52.357883743629579     57.073651230888736     59.988155821056580
Pt     54.159146640720891     61.789418718147893     57.073651230888736
Pt     57.073651230888736     61.789418718147893     57.073651230888736
Pt     59.988155821056580     61.789418718147893     57.073651230888736
Pt     54.159146640720891     52.357883743629579     57.073651230888736
Pt     57.073651230888736     52.357883743629579     57.073651230888736
Pt     59.988155821056580     52.357883743629579     57.073651230888736
Pt     57.073651230888736     54.159146640720891     61.789418718147893
Pt     57.073651230888736     57.073651230888736     61.789418718147893
Pt     57.073651230888736     59.988155821056580     61.789418718147893
Pt     57.073651230888736     54.159146640720891     52.357883743629579
Pt     57.073651230888736     57.073651230888736     52.357883743629579
Pt     57.073651230888736     59.988155821056580     52.357883743629579
Pt     59.431534974518314     55.616398935804810     60.888787269602240
Pt     59.431534974518314     58.530903525972661     60.888787269602240
Pt     59.431534974518314     55.616398935804810     53.258515192175231
Pt     59.431534974518314     58.530903525972661     53.258515192175231
Pt     54.715767487259157     55.616398935804810     60.888787269602240
Pt     54.715767487259157     58.530903525972661     60.888787269602240
Pt     54.715767487259157     55.616398935804810     53.258515192175231
Pt     54.715767487259157     58.530903525972661     53.258515192175231
Pt     60.888787269602240     59.431534974518314     55.616398935804810
Pt     60.888787269602240     59.431534974518314     58.530903525972661
Pt     53.258515192175231     59.431534974518314     55.616398935804810
Pt     53.258515192175231     59.431534974518314     58.530903525972661
Pt     60.888787269602240     54.715767487259157     55.616398935804810
Pt     60.888787269602240     54.715767487259157     58.530903525972661
Pt     53.258515192175231     54.715767487259157     55.616398935804810
Pt     53.258515192175231     54.715767487259157     58.530903525972661
Pt     55.616398935804810     60.888787269602240     59.431534974518314
Pt     58.530903525972661     60.888787269602240     59.431534974518314
Pt     55.616398935804810     53.258515192175231     59.431534974518314
Pt     58.530903525972661     53.258515192175231     59.431534974518314
Pt     55.616398935804810     60.888787269602240     54.715767487259157
Pt     58.530903525972661     60.888787269602240     54.715767487259157
Pt     55.616398935804810     53.258515192175231     54.715767487259157
Pt     58.530903525972661     53.258515192175231     54.715767487259157
Pt     64.147302461777471     57.073651230888736     52.701894345636966
Pt     64.147302461777471     57.073651230888736     55.616398935804810
Pt     64.147302461777471     57.073651230888736     58.530903525972661
Pt     64.147302461777471     57.073651230888736     61.445408116140506
Pt     50.000000000000000     57.073651230888736     52.701894345636966
Pt     50.000000000000000     57.073651230888736     55.616398935804810
Pt     50.000000000000000     57.073651230888736     58.530903525972661
Pt     50.000000000000000     57.073651230888736     61.445408116140506
Pt     52.701894345636966     64.147302461777471     57.073651230888736
Pt     55.616398935804810     64.147302461777471     57.073651230888736
Pt     58.530903525972661     64.147302461777471     57.073651230888736
Pt     61.445408116140506     64.147302461777471     57.073651230888736
Pt     52.701894345636966     50.000000000000000     57.073651230888736
Pt     55.616398935804810     50.000000000000000     57.073651230888736
Pt     58.530903525972661     50.000000000000000     57.073651230888736
Pt     61.445408116140506     50.000000000000000     57.073651230888736
Pt     57.073651230888736     52.701894345636966     64.147302461777471
Pt     57.073651230888736     55.616398935804810     64.147302461777471
Pt     57.073651230888736     58.530903525972661     64.147302461777471
Pt     57.073651230888736     61.445408116140506     64.147302461777471
Pt     57.073651230888736     52.701894345636966     50.000000000000000
Pt     57.073651230888736     55.616398935804810     50.000000000000000
Pt     57.073651230888736     58.530903525972661     50.000000000000000
Pt     57.073651230888736     61.445408116140506     50.000000000000000
Pt     61.789418718147893     55.616398935804810     62.346039564686166
Pt     59.431534974518314     54.159146640720891     63.246671013231818
Pt     61.789418718147893     58.530903525972661     62.346039564686166
Pt     59.431534974518314     57.073651230888736     63.246671013231818
Pt     59.431534974518314     59.988155821056580     63.246671013231818
Pt     61.789418718147893     55.616398935804810     51.801262897091313
Pt     59.431534974518314     54.159146640720891     50.900631448545653
Pt     61.789418718147893     58.530903525972661     51.801262897091313
Pt     59.431534974518314     57.073651230888736     50.900631448545653
Pt     59.431534974518314     59.988155821056580     50.900631448545653
Pt     52.357883743629579     55.616398935804810     62.346039564686166
Pt     54.715767487259157     54.159146640720891     63.246671013231818
Pt     52.357883743629579     58.530903525972661     62.346039564686166
Pt     54.715767487259157     57.073651230888736     63.246671013231818
Pt     54.715767487259157     59.988155821056580     63.246671013231818
Pt     52.357883743629579     55.616398935804810     51.801262897091313
Pt     54.715767487259157     54.159146640720891     50.900631448545653
Pt     52.357883743629579     58.530903525972661     51.801262897091313
Pt     54.715767487259157     57.073651230888736     50.900631448545653
Pt     54.715767487259157     59.988155821056580     50.900631448545653
Pt     62.346039564686166     61.789418718147893     55.616398935804810
Pt     63.246671013231818     59.431534974518314     54.159146640720891
Pt     62.346039564686166     61.789418718147893     58.530903525972661
Pt     63.246671013231818     59.431534974518314     57.073651230888736
Pt     63.246671013231818     59.431534974518314     59.988155821056580
Pt     51.801262897091313     61.789418718147893     55.616398935804810
Pt     50.900631448545653     59.431534974518314     54.159146640720891
Pt     51.801262897091313     61.789418718147893     58.530903525972661
Pt     50.900631448545653     59.431534974518314     57.073651230888736
Pt     50.900631448545653     59.431534974518314     59.988155821056580
Pt     62.346039564686166     52.357883743629579     55.616398935804810
